<additional>
    <tlLogic id="7" type="static" programID="1" offset="0">
        <phase duration="31" state="GGgrrrGGgrrr"/>
        <phase duration="5"  state="yyyrrryyyrrr"/>
        <phase duration="31" state="rrrGGgrrrGGg"/>
        <phase duration="5"  state="rrryyyrrryyy"/>
    </tlLogic>
    <!-- Add similar logic for intersection 8 -->
    <tlLogic id="8" type="static" programID="2" offset="0">
        <phase duration="31" state="GGgrrrGGgrrr"/>
        <phase duration="5"  state="yyyrrryyyrrr"/>
        <phase duration="31" state="rrrGGgrrrGGg"/>
        <phase duration="5"  state="rrryyyrrryyy"/>
    </tlLogic>

</additional>